// Infinite Bus Dynamix Parameters
1, 'GENCLS', 1,     0.0000,       0.0000      /

// Induction Motor Dynamic Parameters
4, 'CIM5BL', 1, 1, 0, 0.0759, 3.1241, 0.0085, 0.0759, 0.0, 0.0, 1.0, 0.06, 1.2, 0.6, 15, 1.0, 0.40, 0.0, 0.0, 0.0, 1.0, 1.0 /